&HEAD CHID='GEN_N-HEPTANE_small_20260218_152553', TITLE='Generated Fire Scenario' /

&MESH IJK=27,27,22, XB=0.0,3.0,0.0,3.0,0.0,2.5 /

&TIME T_END=600.0 /

&MISC SIMULATION_MODE='LES' /

&REAC FUEL='N-HEPTANE',
      SOOT_YIELD=0.037,
      CO_YIELD=0.01,
      HEAT_OF_COMBUSTION=44600 /

&SURF ID='FIRE',
      HRRPUA=630.0,
      COLOR='RED',
      RAMP_Q='fire_ramp' /

&RAMP ID='fire_ramp', T=0.0, F=0.0 /
&RAMP ID='fire_ramp', T=10.0, F=0.3 /
&RAMP ID='fire_ramp', T=30.0, F=1.0 /
&RAMP ID='fire_ramp', T=540.0, F=1.0 /
&RAMP ID='fire_ramp', T=600.0, F=0.8 /

&OBST XB=1.435,1.565,1.435,1.565,0.0,0.1,
      SURF_ID='FIRE', COLOR='ORANGE' /

&VENT XB=3.0,0.0,3.0,0.0,2.5, SURF_ID='OPEN' /
&VENT XB=0.0,0.28800000000000003,0.0,0.0,0.0,2.0, SURF_ID='OPEN', COLOR='BLUE' /

&VENT MB='XMIN', SURF_ID='OPEN' /
&VENT MB='XMAX', SURF_ID='OPEN' /
&VENT MB='YMIN', SURF_ID='OPEN' /
&VENT MB='YMAX', SURF_ID='OPEN' /
&VENT MB='ZMAX', SURF_ID='OPEN' /

&DEVC ID='HRR', QUANTITY='HRR', XYZ=1.5,1.5,1.25, SPATIAL_STATISTIC='VOLUME INTEGRAL' /

&SLCF PBY=1.5, QUANTITY='TEMPERATURE', VECTOR=.TRUE. /
&SLCF PBZ=1.5, QUANTITY='TEMPERATURE' /

&DUMP DT_HRR=1.0, DT_DEVC=1.0 /

&TAIL /
