&HEAD CHID='GEN_METHANE_medium_20260218_151337', TITLE='Generated Fire Scenario' /

&MESH IJK=44,44,33, XB=0.0,4.0,0.0,4.0,0.0,3.0 /

&TIME T_END=400.0 /

&MISC SIMULATION_MODE='LES' /

&REAC FUEL='METHANE',
      SOOT_YIELD=0.022,
      CO_YIELD=0.004,
      HEAT_OF_COMBUSTION=50000 /

&SURF ID='FIRE',
      HRRPUA=660.0,
      COLOR='RED',
      RAMP_Q='fire_ramp' /

&RAMP ID='fire_ramp', T=0.0, F=0.0 /
&RAMP ID='fire_ramp', T=10.0, F=0.3 /
&RAMP ID='fire_ramp', T=30.0, F=1.0 /
&RAMP ID='fire_ramp', T=340.0, F=1.0 /
&RAMP ID='fire_ramp', T=400.0, F=0.8 /

&OBST XB=1.92,2.08,1.92,2.08,0.0,0.1,
      SURF_ID='FIRE', COLOR='ORANGE' /

&VENT XB=4.0,0.0,4.0,0.0,3.0, SURF_ID='OPEN' /
&VENT XB=0.0,0.9040000000000001,0.0,0.0,0.0,2.0, SURF_ID='OPEN', COLOR='BLUE' /

&VENT MB='XMIN', SURF_ID='OPEN' /
&VENT MB='XMAX', SURF_ID='OPEN' /
&VENT MB='YMIN', SURF_ID='OPEN' /
&VENT MB='YMAX', SURF_ID='OPEN' /
&VENT MB='ZMAX', SURF_ID='OPEN' /

&DEVC ID='HRR', QUANTITY='HRR', XYZ=2.0,2.0,1.5, SPATIAL_STATISTIC='VOLUME INTEGRAL' /

&SLCF PBY=2.0, QUANTITY='TEMPERATURE', VECTOR=.TRUE. /
&SLCF PBZ=1.5, QUANTITY='TEMPERATURE' /

&DUMP DT_HRR=1.0, DT_DEVC=1.0 /

&TAIL /
